Circuit: * C:\Users\Bruno\Stuff\UTN\TC2\tc2-r4001\trabajo_semanal_1\Draft1.asc

.OP point found by inspection.
Ignoring empty pin current: Ix(u1:1)
Ignoring empty pin current: Ix(u1:2)
Ignoring empty pin current: Ix(u2:1)
Ignoring empty pin current: Ix(u2:2)
Ignoring empty pin current: Ix(u3:1)
Ignoring empty pin current: Ix(u3:2)
Ignoring empty pin current: Ix(u1:1)
Ignoring empty pin current: Ix(u1:2)
Ignoring empty pin current: Ix(u2:1)
Ignoring empty pin current: Ix(u2:2)
Ignoring empty pin current: Ix(u3:1)
Ignoring empty pin current: Ix(u3:2)

Date: Thu Apr 20 17:51:19 2023
Total elapsed time: 0.019 seconds.

tnom = 27
temp = 27
method = modified trap
totiter = 2146
traniter = 2146
tranpoints = 1074
accept = 1074
rejected = 0
matrix size = 8
fillins = 5
solver = Normal
Matrix Compiler1: 620 bytes object code size  0.1/0.1/[0.1]
Matrix Compiler2: 676 bytes object code size  0.1/0.1/[0.1]

