Circuit: * D:\utn\tc2-r4001\trabajo_semanal_11\sim\ej1.asc

WARNING: Node N001 is floating.

.OP point found by inspection.

Date: Thu Nov 16 08:16:09 2023
Total elapsed time: 0.081 seconds.

tnom = 27
temp = 27
method = trap
totiter = 0
traniter = 0
tranpoints = 0
accept = 0
rejected = 0
matrix size = 5
fillins = 1
solver = Normal
Avg thread counts: 4.0/0.0/0.0/1.1
Matrix Compiler1:      12 opcodes
Matrix Compiler2:      28 opcodes
