Circuit: * D:\utn\tc2-r4001\trabajo_semanal_11\sim\ej2_2.asc

.OP point found by inspection.

Date: Thu Nov 16 08:28:19 2023
Total elapsed time: 0.055 seconds.

tnom = 27
temp = 27
method = trap
totiter = 0
traniter = 0
tranpoints = 0
accept = 0
rejected = 0
matrix size = 4
fillins = 1
solver = Normal
Avg thread counts: 4.0/0.0/0.0/1.4
Matrix Compiler1:       9 opcodes
Matrix Compiler2:      22 opcodes
