Circuit: * C:\Users\Bruno\Documents\UTN\tc2-r4001\trabajo_semanal_12\sim.asc


Date: Wed Nov 29 05:42:43 2023
Total elapsed time: 0.019 seconds.

tnom = 27
temp = 27
method = trap
totiter = 0
traniter = 0
tranpoints = 0
accept = 0
rejected = 0
matrix size = 2
fillins = 0
solver = Normal

