Circuit: * C:\Users\Bruno\Documents\UTN\tc2-r4001\trabajo_laboratorio_1\sim.asc

.OP point found by inspection.
Ignoring empty pin current: Ix(u1:1)
Ignoring empty pin current: Ix(u1:2)
Ignoring empty pin current: Ix(u2:1)
Ignoring empty pin current: Ix(u2:2)
Ignoring empty pin current: Ix(u3:1)
Ignoring empty pin current: Ix(u3:2)
Ignoring empty pin current: Ix(u1:1)
Ignoring empty pin current: Ix(u1:2)
Ignoring empty pin current: Ix(u2:1)
Ignoring empty pin current: Ix(u2:2)
Ignoring empty pin current: Ix(u3:1)
Ignoring empty pin current: Ix(u3:2)



Date: Wed Jul 12 06:39:54 2023
Total elapsed time: 0.041 seconds.

tnom = 27
temp = 27
method = modified trap
totiter = 2128
traniter = 2128
tranpoints = 1065
accept = 1062
rejected = 3
matrix size = 9
fillins = 7
solver = Normal
Matrix Compiler1: 750 bytes object code size  0.1/0.1/[0.1]
Matrix Compiler2: 783 bytes object code size  0.1/0.1/[0.1]

