Circuit: * C:\Users\Bruno\Documents\UTN\tc2-r4001\trabajo_semanal_13\sim.asc


Date: Wed Nov 29 07:05:39 2023
Total elapsed time: 0.026 seconds.

tnom = 27
temp = 27
method = trap
totiter = 0
traniter = 0
tranpoints = 0
accept = 0
rejected = 0
matrix size = 3
fillins = 0
solver = Normal

