Circuit: * Z:\home\bruno\utn\tc2\tc2-r4001\trabajo_semanal_3\simulacion.asc

.OP point found by inspection.
Ignoring empty pin current: Ix(u1:1)
Ignoring empty pin current: Ix(u1:2)
Ignoring empty pin current: Ix(u1:1)
Ignoring empty pin current: Ix(u1:2)

g: v(vo)/v(vi)=(-0.983858dB,-104.159°) at 1500
g3: v(vo)/v(vi)=(-12.4417dB,167.848°) at 3000


Date: Thu May  4 02:09:55 2023
Total elapsed time: 0.126 seconds.

tnom = 27
temp = 27
method = trap
totiter = 0
traniter = 0
tranpoints = 0
accept = 0
rejected = 0
matrix size = 6
fillins = 0
solver = Normal
Avg thread counts: 4.0/0.0/0.0/1.1
Matrix Compiler1:      12 opcodes
Matrix Compiler2:      32 opcodes
