Circuit: * Z:\home\bruno\utn\tc2\tc2-r4001\trabajo_semanal_3\simulacion2.asc

.OP point found by inspection.
Ignoring empty pin current: Ix(u1:1)
Ignoring empty pin current: Ix(u1:2)
Ignoring empty pin current: Ix(u2:1)
Ignoring empty pin current: Ix(u2:2)
Ignoring empty pin current: Ix(u3:1)
Ignoring empty pin current: Ix(u3:2)
Ignoring empty pin current: Ix(u1:1)
Ignoring empty pin current: Ix(u1:2)
Ignoring empty pin current: Ix(u2:1)
Ignoring empty pin current: Ix(u2:2)
Ignoring empty pin current: Ix(u3:1)
Ignoring empty pin current: Ix(u3:2)

g: v(vo)/v(vi)=(-0.9935dB,-104.056°) at 1500
g2: v(vo)/v(vi)=(-12.4217dB,167.981°) at 3000


Date: Thu May  4 02:11:21 2023
Total elapsed time: 0.161 seconds.

tnom = 27
temp = 27
method = trap
totiter = 0
traniter = 0
tranpoints = 0
accept = 0
rejected = 0
matrix size = 9
fillins = 8
solver = Normal
Avg thread counts: 4.0/0.0/0.0/1.1
Matrix Compiler1:      44 opcodes
Matrix Compiler2:      62 opcodes
